 This run of the CFX 2024 R2 Solver started at 13:05:27 on 26 Nov 2024
 by user jena on LAMDPC7 (intel_xeon64.sse2_winnt) using the command:
 
  "C:\Program Files\ANSYS Inc\v242\CFX\bin\perllib\cfx5solve.pl" -batch
    -ccl runInput.ccl -fullname "Fluid Flow CFX_002"
 
 2024 R2
 
  Point Releases and Patches installed:
  Ansys, Inc. License Manager 2024 R2
  Viewer 2024 R2
  Discovery 2024 R2
  Core WB Files 2024 R2
  SpaceClaim 2024 R2
  Ansys Dynamic Reporting 2024 R2
  CFD-Post only 2024 R2
  CFX (includes CFD-Post) 2024 R2
  Chemkin 2024 R2
  EnSight 2024 R2
  FENSAP-ICE 2024 R2
  Fluent (includes CFD-Post) 2024 R2
  Polyflow (includes CFD-Post) 2024 R2
  Forte (includes EnSight) 2024 R2
  ICEM CFD 2024 R2
  TurboGrid 2024 R2
  optiSLang 2024 R2
  Remote Solve Manager Standalone Services 2024 R2
  Additive 2024 R2
  Aqwa 2024 R2
  Autodyn 2024 R2
  Customization Files for User Programmable Features 2024 R2
  LS-DYNA 2024 R2
  Material Calibration App 2024 R2
  Mechanical Products 2024 R2
  Motion 2024 R2
  Sherlock 2024 R2
  Sound - SAS 2024 R2
  ACIS Geometry Interface 2024 R2
  AutoCAD Geometry Interface 2024 R2
  Catia, Version 4 Geometry Interface 2024 R2
  Catia, Version 5 Geometry Interface 2024 R2
  Catia, Version 6 Geometry Interface 2024 R2
  Creo Elements/Direct Modeling Geometry Interface 2024 R2
  Creo Parametric Geometry Interface 2024 R2
  Inventor Geometry Interface 2024 R2
  JTOpen Geometry Interface 2024 R2
  NX Geometry Interface 2024 R2
  Parasolid Geometry Interface  2024 R2
  Solid Edge Geometry Interface 2024 R2
  SOLIDWORKS Geometry Interface 2024 R2
 
 Setting up CFX Solver run ...
 
 
 +--------------------------------------------------------------------+
 |                                                                    |
 |                    CFX Command Language for Run                    |
 |                                                                    |
 +--------------------------------------------------------------------+
 
 LIBRARY:
   CEL:
     EXPRESSIONS:
       Flow Rate = 0.0019247160100148018 [kg s^-1]
     END
   END
   MATERIAL: Air Ideal Gas
     Material Description = Air Ideal Gas (constant Cp)
     Material Group = Air Data,Calorically Perfect Ideal Gases
     Option = Pure Substance
     Thermodynamic State = Gas
     PROPERTIES:
       Option = General Material
       EQUATION OF STATE:
         Molar Mass = 28.96 [kg kmol^-1]
         Option = Ideal Gas
       END
       SPECIFIC HEAT CAPACITY:
         Option = Value
         Specific Heat Capacity = 1.0044E+03 [J kg^-1 K^-1]
         Specific Heat Type = Constant Pressure
       END
       REFERENCE STATE:
         Option = Specified Point
         Reference Pressure = 1 [atm]
         Reference Specific Enthalpy = 0. [J/kg]
         Reference Specific Entropy = 0. [J/kg/K]
         Reference Temperature = 25 [C]
       END
       DYNAMIC VISCOSITY:
         Option = Sutherlands Formula
         Reference Temperature = 273.15 [K]
         Reference Viscosity = 1.716e-5 [Pa s]
         Sutherlands Constant = 110.4 [K]
         Temperature Exponent = 1.5
       END
       THERMAL CONDUCTIVITY:
         Option = Value
         Thermal Conductivity = 2.61E-2 [W m^-1 K^-1]
       END
       ABSORPTION COEFFICIENT:
         Absorption Coefficient = 0.01 [m^-1]
         Option = Value
       END
       SCATTERING COEFFICIENT:
         Option = Value
         Scattering Coefficient = 0.0 [m^-1]
       END
       REFRACTIVE INDEX:
         Option = Value
         Refractive Index = 1.0 [m m^-1]
       END
     END
   END
 END
 FLOW: Flow Analysis 1
   SOLUTION UNITS:
     Angle Units = [rad]
     Length Units = [m]
     Mass Units = [kg]
     Solid Angle Units = [sr]
     Temperature Units = [K]
     Time Units = [s]
   END
   ANALYSIS TYPE:
     Option = Steady State
     EXTERNAL SOLVER COUPLING:
       Option = None
     END
   END
   DOMAIN: B14619
     Coord Frame = Coord 0
     Domain Type = Fluid
     Location = B14619
     BOUNDARY: Bottomwall
       Boundary Type = WALL
       Location = Bottomwall
       BOUNDARY CONDITIONS:
         HEAT TRANSFER:
           Fixed Temperature = 293.15 [K]
           Option = Fixed Temperature
         END
         MASS AND MOMENTUM:
           Option = No Slip Wall
         END
         WALL ROUGHNESS:
           Option = Smooth Wall
         END
       END
     END
     BOUNDARY: Inlet
       Boundary Type = INLET
       Location = Inlet
       BOUNDARY CONDITIONS:
         FLOW DIRECTION:
           Option = Normal to Boundary Condition
         END
         FLOW REGIME:
           Option = Subsonic
         END
         HEAT TRANSFER:
           Option = Static Temperature
           Static Temperature = 338.15 [K]
         END
         MASS AND MOMENTUM:
           Mass Flow Rate = Flow Rate
           Mass Flow Rate Area = As Specified
           Option = Mass Flow Rate
         END
         TURBULENCE:
           Option = Medium Intensity and Eddy Viscosity Ratio
         END
       END
     END
     BOUNDARY: Outlet
       Boundary Type = OUTLET
       Location = Outlet
       BOUNDARY CONDITIONS:
         FLOW REGIME:
           Option = Subsonic
         END
         MASS AND MOMENTUM:
           Option = Average Static Pressure
           Pressure Profile Blend = 0.05
           Relative Pressure = -17825 [Pa]
         END
         PRESSURE AVERAGING:
           Option = Average Over Whole Outlet
         END
       END
     END
     BOUNDARY: Sidewalls
       Boundary Type = WALL
       Location = Sidewalls
       BOUNDARY CONDITIONS:
         HEAT TRANSFER:
           Fixed Temperature = 293.15 [K]
           Option = Fixed Temperature
         END
         MASS AND MOMENTUM:
           Option = No Slip Wall
         END
         WALL ROUGHNESS:
           Option = Smooth Wall
         END
       END
     END
     BOUNDARY: Topwall
       Boundary Type = WALL
       Location = Topwall
       BOUNDARY CONDITIONS:
         HEAT TRANSFER:
           Fixed Temperature = 293.15 [K]
           Option = Fixed Temperature
         END
         MASS AND MOMENTUM:
           Option = No Slip Wall
         END
         WALL ROUGHNESS:
           Option = Smooth Wall
         END
       END
     END
     DOMAIN MODELS:
       BUOYANCY MODEL:
         Option = Non Buoyant
       END
       DOMAIN MOTION:
         Option = Stationary
       END
       MESH DEFORMATION:
         Option = None
       END
       REFERENCE PRESSURE:
         Reference Pressure = 1 [atm]
       END
     END
     FLUID DEFINITION: Fluid 1
       Material = Air Ideal Gas
       Option = Material Library
       MORPHOLOGY:
         Option = Continuous Fluid
       END
     END
     FLUID MODELS:
       COMBUSTION MODEL:
         Option = None
       END
       HEAT TRANSFER MODEL:
         Include Viscous Dissipation Term = On
         Option = Thermal Energy
       END
       THERMAL RADIATION MODEL:
         Option = None
       END
       TURBULENCE MODEL:
         Option = SST
         TRANSITIONAL TURBULENCE:
           Option = Fully Turbulent
         END
       END
       TURBULENT WALL FUNCTIONS:
         Option = Automatic
       END
     END
   END
   OUTPUT CONTROL:
     RESULTS:
       File Compression Level = Default
       Option = Standard
     END
   END
   SOLVER CONTROL:
     Turbulence Numerics = First Order
     ADVECTION SCHEME:
       Option = High Resolution
     END
     CONVERGENCE CONTROL:
       Length Scale Option = Conservative
       Maximum Number of Iterations = 100
       Minimum Number of Iterations = 1
       Timescale Control = Auto Timescale
       Timescale Factor = 1.0
     END
     CONVERGENCE CRITERIA:
       Residual Target = 1.E-4
       Residual Type = RMS
     END
     DYNAMIC MODEL CONTROL:
       Global Dynamic Model Control = On
     END
     INTERRUPT CONTROL:
       Option = Any Interrupt
       CONVERGENCE CONDITIONS:
         Option = Default Conditions
       END
     END
   END
 END
 COMMAND FILE:
   Version = 24.2
   Results Version = 24.2
 END
 PARAMETERIZATION:
   INPUT FIELD: Flow Rate
     Expression Name = Flow Rate
     Method = Expression
   END
 END
 SIMULATION CONTROL:
   EXECUTION CONTROL:
     EXECUTABLE SELECTION:
       Double Precision = Yes
       Large Problem = No
     END
     INTERPOLATOR STEP CONTROL:
       Runtime Priority = Standard
       MEMORY CONTROL:
         Memory Allocation Factor = 1.0
         Option = Model Based
       END
     END
     PARALLEL HOST LIBRARY:
       HOST DEFINITION: lamdpc7
         Host Architecture String = winnt-amd64
         Installation Root = C:\Program Files\ANSYS Inc\v%v\CFX
       END
     END
     PARTITIONER STEP CONTROL:
       Multidomain Option = Automatic
       Option = Spatial Partitioning
       Runtime Priority = Standard
       MEMORY CONTROL:
         Memory Allocation Factor = 1.0
         Option = Model Based
       END
       PARTITION SMOOTHING:
         Maximum Partition Smoothing Sweeps = 100
         Option = Smooth
       END
       PARTITIONING TYPE:
         MeTiS Type = k-way
         Option = MeTiS
         Partition Size Rule = Automatic
         Partition Weight Factors = 0.04545, 0.04545, 0.04545, 0.04545, \
           0.04545, 0.04545, 0.04545, 0.04545, 0.04545, 0.04545, 0.04545, \
           0.04545, 0.04545, 0.04545, 0.04545, 0.04545, 0.04545, 0.04545, \
           0.04545, 0.04545, 0.04545, 0.04545
       END
       SPATIAL PARTITIONING:
         Option = Automatic
       END
     END
     RUN DEFINITION:
       Run Mode = Full
       Solver Input File = Fluid Flow CFX.def
       Solver Results File = \
         D:/jena/ML4Science_pending/dp0_CFX_Solution/Fluid Flow CFX_002.res
       INITIAL VALUES SPECIFICATION:
         INITIAL VALUES CONTROL:
           Use Mesh From = Solver Input File
           Continue History From = Workbench Initial Values
         END
         INITIAL VALUES: Workbench Initial Values
           Option = Results File
           File Name = Fluid Flow CFX_001.res
         END
       END
     END
     SOLVER STEP CONTROL:
       Runtime Priority = Standard
       MEMORY CONTROL:
         Memory Allocation Factor = 1.0
         Option = Model Based
       END
       PARALLEL ENVIRONMENT:
         Maximum Number of Processes = 22
         Start Method = Intel MPI Local Parallel
         Parallel Host List = lamdpc7*22
       END
     END
   END
 END
 
 
 +--------------------------------------------------------------------+
 |                                                                    |
 |                  Interpolation of Initial Values                   |
 |                                                                    |
 +--------------------------------------------------------------------+
 
 


 +--------------------------------------------------------------------+
 |                                                                    |
 |                    ANSYS(R) CFX(R) Interpolator                    |
 |                                                                    |
 | 2024 R2                                                            |
 | Build 24.2 2024-05-13T11:42:54.771873                              |
 | Mon May 13 12:23:24 PDT 2024                                       |
 |                                                                    |
 |                        Executable Attributes                       |
 |                                                                    |
 |           double-64bit-int32-archfort-optimised-std-lcomp          |
 |                                                                    |
 | (C) 1996-2024 ANSYS, Inc.                                          |
 |                                                                    |
 | All rights reserved. Unauthorized use, distribution or duplication |
 | is prohibited. This product is subject to U.S. laws governing      |
 | export and re-export. For full Legal Notice, see documentation.    |
 +--------------------------------------------------------------------+




 +--------------------------------------------------------------------+
 |                  Job Information at Start of Run                   |
 +--------------------------------------------------------------------+

 Run mode:       serial run

 Host computer:  LAMDPC7 (PID:12216)

 Job started:    Tue Nov 26 13:05:28 2024


 +--------------------------------------------------------------------+
 |         Initial Memory Allocation  (Actual usage may vary)         |
 +--------------------------------------------------------------------+

           | Real       | Integer    | Character | Logical  | Double
 ----------+------------+------------+-----------+----------+----------
 Mwords    |      23.53 |      28.48 |      0.20 |     0.01 |     0.30
 Mbytes    |     179.49 |     108.63 |      0.19 |     0.04 |     2.29
 ----------+------------+------------+-----------+----------+----------


 +--------------------------------------------------------------------+
 |            Host Memory Information (Mbytes): Interpolator          |
 +--------------------------------------------------------------------+
 |          Host           |     System     |   Allocated    |   %    |
 +-------------------------+----------------+----------------+--------+
 | LAMDPC7                 |    262064.50   |       290.64   |   0.11 |
 +-------------------------+----------------+----------------+--------+

 ======================================================================
                   Interpolating Onto Domain "B14619"
 ======================================================================

 Total Number of Nodes in the Target Domain              =       603853
 Bounding Box Volume of the Target Mesh                  =  3.78407E-03


 Checking all source domains from the source file:
   Target mesh is the same as domain "B14619".

 Start direct copying of variables from domain "B14619".

 +--------------------------------------------------------------------+
 |                     Variable Range Information                     |
 +--------------------------------------------------------------------+
 +--------------------------------------------------------------------+
 |      Variable Name                         |    min    |    max    |
 +--------------------------------------------------------------------+
 | Density.Beta                               |  5.52E-04 |  1.00E+00 |
 | Static Enthalpy.Beta                       |  1.11E-03 |  1.00E+00 |
 | Velocity u.Beta                            |  4.69E-03 |  1.00E+00 |
 | Velocity v.Beta                            |  2.54E-07 |  1.00E+00 |
 | Velocity w.Beta                            |  3.77E-07 |  1.00E+00 |
 | Isothermal Compressibility                 |  1.17E-05 |  1.20E-05 |
 | Thermal Conductivity                       |  2.61E-02 |  2.61E-02 |
 | Courant Number                             |  5.51E-01 |  1.45E+02 |
 | Density                                    |  8.65E-01 |  1.00E+00 |
 | Total Density                              |  8.98E-01 |  1.00E+00 |
 | Density Derivative wrt Pressure at Constant|  1.03E-05 |  1.18E-05 |
 | Static Enthalpy                            | -4.12E+03 |  4.02E+04 |
 | Static Entropy                             |  3.87E+01 |  1.79E+02 |
 | Volume Porosity                            |  1.00E+00 |  1.00E+00 |
 | Density.Gradient                           |  1.87E-03 |  2.55E+03 |
 | Static Enthalpy.Gradient                   |  5.67E-01 |  8.32E+08 |
 | Pressure.Gradient                          |  3.68E+01 |  1.08E+05 |
 | Velocity u.Gradient                        |  2.67E+00 |  1.76E+06 |
 | Velocity v.Gradient                        |  1.23E-01 |  4.64E+04 |
 | Velocity w.Gradient                        |  2.24E-03 |  2.43E+04 |
 | Wall Scale.Gradient                        |  7.83E-06 |  1.13E-02 |
 | Mach Number                                |  6.31E-03 |  2.80E-01 |
 | Absolute Pressure                          |  8.35E+04 |  8.55E+04 |
 | Pressure                                   | -1.79E+04 | -1.58E+04 |
 | Total Pressure                             | -1.79E+04 | -1.24E+04 |
 | Real Partition Number                      |  1.00E+00 |  2.20E+01 |
 | Local Speed of Sound                       |  3.44E+02 |  3.69E+02 |
 | Specific Heat Capacity at Constant Pressure|  1.00E+03 |  1.00E+03 |
 | Specific Heat Capacity at Constant Volume  |  7.17E+02 |  7.17E+02 |
 | Specific Volume                            |  9.95E-01 |  1.16E+00 |
 | First Blending Function for BSL and SST mod|  2.91E-07 |  1.00E+00 |
 | Second Blending Function for SST model     |  8.12E-03 |  1.00E+00 |
 | Shear Strain Rate                          |  5.42E+00 |  1.76E+06 |
 | Turbulence Eddy Dissipation                |  1.60E+02 |  6.57E+06 |
 | Turbulence Eddy Frequency                  |  3.14E+03 |  6.24E+07 |
 | Temperature                                |  2.94E+02 |  3.38E+02 |
 | Turbulence Kinetic Energy                  |  1.86E-02 |  5.54E+01 |
 | Total Temperature                          |  2.94E+02 |  3.43E+02 |
 | Velocity                                   |  2.17E+00 |  1.03E+02 |
 | Dynamic Viscosity                          |  1.82E-05 |  2.02E-05 |
 | Eddy Viscosity                             |  3.12E-10 |  2.49E-03 |
 | Wall Distance                              |  1.11E-09 |  1.12E-02 |
 | Wall Scale                                 |  7.48E-12 |  6.36E-05 |
 +--------------------------------------------------------------------+

 Copying 2 immersed solid domain motion data from the source domain.


 +--------------------------------------------------------------------+
 |            Host Memory Information (Mbytes): Interpolator          |
 +--------------------------------------------------------------------+
 |          Host           |     System     |      Peak      |   %    |
 +-------------------------+----------------+----------------+--------+
 | LAMDPC7                 |    262064.50   |       157.30   |   0.06 |
 +-------------------------+----------------+----------------+--------+

 +--------------------------------------------------------------------+
 |               CPU Time Requirements of Interpolator                |
 +--------------------------------------------------------------------+
 

 Interpolation Step              Time    Percentage
                                (secs.   %total)
 ----------------------------------------------------------------------
 Tree Setup                     4.00E-01   19.2 %
 Interpolation                  1.21E+00   58.2 %
 Miscellaneous                  4.71E-01   22.6 %
                                --------
 Total                          2.09E+00

 +--------------------------------------------------------------------+
 |                   Job Information at End of Run                    |
 +--------------------------------------------------------------------+

 Host computer:  LAMDPC7 (PID:12216)

 Job finished:   Tue Nov 26 13:05:30 2024

 Total wall clock time: 1.788E+00 seconds
             or: (          0:         0:         0:     1.788 )
                 (       Days:     Hours:   Minutes:   Seconds )

 
 +--------------------------------------------------------------------+
 |                                                                    |
 |                            Partitioning                            |
 |                                                                    |
 +--------------------------------------------------------------------+
 



 +--------------------------------------------------------------------+
 |                                                                    |
 |                     ANSYS(R) CFX(R) Partitioner                    |
 |                                                                    |
 | 2024 R2                                                            |
 | Build 24.2 2024-05-13T11:42:54.771873                              |
 | Mon May 13 12:23:24 PDT 2024                                       |
 |                                                                    |
 |                        Executable Attributes                       |
 |                                                                    |
 |           double-64bit-int32-archfort-optimised-std-lcomp          |
 |                                                                    |
 | (C) 1996-2024 ANSYS, Inc.                                          |
 |                                                                    |
 | All rights reserved. Unauthorized use, distribution or duplication |
 | is prohibited. This product is subject to U.S. laws governing      |
 | export and re-export. For full Legal Notice, see documentation.    |
 +--------------------------------------------------------------------+




 +--------------------------------------------------------------------+
 |                  Job Information at Start of Run                   |
 +--------------------------------------------------------------------+

 Run mode:       partitioning run

 Host computer:  LAMDPC7 (PID:21328)

 Job started:    Tue Nov 26 13:05:32 2024

 +--------------------------------------------------------------------+
 |                        License Information                         |
 +--------------------------------------------------------------------+
 
 License Cap:    ANSYS CFD Solver
 License ID:     lamdpc7_intranet_epfl_ch-jena-12352-000696
 
 License Cap:    ANSYS HPC Parallel
 License ID:     lamdpc7_intranet_epfl_ch-jena-12352-000699

 INFO: You are using an academic license.


 +--------------------------------------------------------------------+
 |         Initial Memory Allocation  (Actual usage may vary)         |
 +--------------------------------------------------------------------+

           | Real       | Integer    | Character | Logical  | Double
 ----------+------------+------------+-----------+----------+----------
 Mwords    |       3.58 |      36.65 |      8.90 |     0.12 |     0.00
 Mbytes    |      27.30 |     139.82 |      8.48 |     0.46 |     0.00
 ----------+------------+------------+-----------+----------+----------


 +--------------------------------------------------------------------+
 |            Host Memory Information (Mbytes): Partitioner           |
 +--------------------------------------------------------------------+
 |          Host           |     System     |   Allocated    |   %    |
 +-------------------------+----------------+----------------+--------+
 | LAMDPC7                 |    262064.50   |       176.06   |   0.07 |
 +-------------------------+----------------+----------------+--------+

 +--------------------------------------------------------------------+
 | The MeTiS partitioning method allocates additional memory.         |
 | Total memory usage will therefore exceed the values shown above.   |
 +--------------------------------------------------------------------+

 +--------------------------------------------------------------------+
 |                      Topology Simplification                       |
 +--------------------------------------------------------------------+

 +--------------------------------------------------------------------+
 |                       ****** Warning ******                        |
 |                                                                    |
 | Topology simplification is activated with the following            |
 | restrictions:                                                      |
 |                                                                    |
 | - Mesh regions referenced only within User Fortran and NOT         |
 |   in the command file will cause the solver to stop.               |
 | - The solver will stop during any "Edit Run in Progress" step      |
 |   if new 2D regions are referenced.                                |
 +--------------------------------------------------------------------+

 +--------------------------------------------------------------------+
 |                          Mesh Statistics                           |
 +--------------------------------------------------------------------+

 Domain Name : B14619

     Total Number of Nodes                                =      603853

     Total Number of Elements                             =     1273809
         Total Number of Tetrahedrons                     =      143957
         Total Number of Prisms                           =     1129852

     Total Number of Faces                                =       54088

 +--------------------------------------------------------------------+
 |                     Vertex Based Partitioning                      |
 +--------------------------------------------------------------------+

 Partitioning of domain: B14619

 - Partitioning tool:       MeTiS multilevel k-way algorithm
 - Number of partitions:            22
 - Number of graph-nodes:       603853
 - Number of graph-edges:      4939262

 +--------------------------------------------------------------------+
 |                 Iso-Partition Connection Statistics                |
 +--------------------------------------------------------------------+
 | Domains in Group          |        |           Vertices            |
 |                           | Smooth +---------+----------+----------+
 |                           | Sweeps |  Moves  |   <25%   |   <50%   |
 +---------------------------+--------+---------+----------+----------+
 | B14619                    |     4  |      63 |       0  |     247  |
 +---------------------------+--------+---------+----------+----------+

 +--------------------------------------------------------------------+
 |                      Partitioning Information                      |
 +--------------------------------------------------------------------+

 Partitioning information for domain: B14619

        +------------------+------------------------+-----------------+
        |     Elements     |        Vertices        |     Faces       |
 +------+------------------+------------------------+-----------------+
 | Part |   Number     %   |   Number     %   %Ovlp |  Number     %   |
 +------+------------------+------------------------+-----------------+
 | Full |   1273809        |    603853              |    54088        |
 +------+------------------+------------------------+-----------------+
 |    1 |     63479    4.7 |     32179    4.7  13.1 |     2367    4.2 |
 |    2 |     64783    4.8 |     32179    4.7  12.4 |     2193    3.9 |
 |    3 |     60658    4.4 |     30740    4.5  11.5 |     2471    4.3 |
 |    4 |     59419    4.4 |     31163    4.5  14.1 |     2540    4.5 |
 |    5 |     63039    4.6 |     31147    4.5  14.3 |     2199    3.9 |
 |    6 |     59719    4.4 |     29888    4.3   9.6 |     2956    5.2 |
 |    7 |     54845    4.0 |     30312    4.4  12.0 |     3244    5.7 |
 |    8 |     66698    4.9 |     31932    4.6  11.8 |     3244    5.7 |
 |    9 |     63898    4.7 |     31837    4.6  11.2 |     2286    4.0 |
 |   10 |     65987    4.8 |     32586    4.7  14.8 |     1915    3.4 |
 |   11 |     60258    4.4 |     31567    4.6  13.3 |     2854    5.0 |
 |   12 |     60353    4.4 |     30766    4.5  12.1 |     2190    3.8 |
 |   13 |     61624    4.5 |     31218    4.5  11.0 |     2669    4.7 |
 |   14 |     62667    4.6 |     32440    4.7  12.9 |     2699    4.7 |
 |   15 |     59324    4.4 |     30548    4.4  12.7 |     2147    3.8 |
 |   16 |     66029    4.8 |     31776    4.6  15.0 |     1943    3.4 |
 |   17 |     63005    4.6 |     31357    4.5  11.4 |     2341    4.1 |
 |   18 |     64592    4.7 |     32551    4.7  13.5 |     2359    4.1 |
 |   19 |     60191    4.4 |     31385    4.5  15.1 |     2797    4.9 |
 |   20 |     59993    4.4 |     30803    4.5   8.7 |     3640    6.4 |
 |   21 |     60547    4.4 |     30565    4.4  12.8 |     3220    5.7 |
 |   22 |     62125    4.6 |     31482    4.6  12.1 |     2678    4.7 |
 +------+------------------+------------------------+-----------------+
 | Min  |     54845    4.0 |     29888    4.3   8.7 |     1915    3.4 |
 |(part)|           (    7)|           (    6    20)|          (   10)|
 +------+------------------+------------------------+-----------------+
 | Max  |     66698    4.9 |     32586    4.7  15.1 |     3640    6.4 |
 |(part)|           (    8)|           (   10    19)|          (   20)|
 +------+------------------+------------------------+-----------------+
 | Ave  |     61965    4.5 |     31383    4.5  12.5 |     2589    4.5 |
 +------+------------------+------------------------+-----------------+
 | Sum  |   1363233  100.0 |    690421  100.0       |    56952  100.0 |
 +------+------------------+------------------------+-----------------+


 +--------------------------------------------------------------------+
 |            Host Memory Information (Mbytes): Partitioner           |
 +--------------------------------------------------------------------+
 |          Host           |     System     |      Peak      |   %    |
 +-------------------------+----------------+----------------+--------+
 | LAMDPC7                 |    262064.50   |       291.51   |   0.11 |
 +-------------------------+----------------+----------------+--------+

 +--------------------------------------------------------------------+
 |                CPU Time Requirements of Partitioner                |
 +--------------------------------------------------------------------+
 
 Preparations                   5.60E-01   14.0 %
 Low-level Mesh Partitioning    3.80E-01    9.5 %
 File Reading                   7.85E-01   19.6 %
 Partition Smoothing            6.42E-01   16.0 %
 Topology - Domain Interface    1.00E-03    0.0 %
 Topology - Global              3.70E-02    0.9 %
 Topology - Element/Face/Patch  7.20E-02    1.8 %
 Topology - Vertex              4.20E-02    1.0 %
 Data Compression               9.00E-03    0.2 %
 Variable Updates               2.00E-03    0.0 %
 File Writing                   3.96E-01    9.9 %
 Miscellaneous                  1.08E+00   27.0 %
                                --------
 Total                          4.01E+00

 +--------------------------------------------------------------------+
 |                   Job Information at End of Run                    |
 +--------------------------------------------------------------------+

 Host computer:  LAMDPC7 (PID:21328)

 Job finished:   Tue Nov 26 13:05:36 2024

 Total wall clock time: 3.733E+00 seconds
             or: (          0:         0:         0:     3.733 )
                 (       Days:     Hours:   Minutes:   Seconds )

 
 +--------------------------------------------------------------------+
 |                                                                    |
 |                               Solver                               |
 |                                                                    |
 +--------------------------------------------------------------------+
 



 +--------------------------------------------------------------------+
 |                                                                    |
 |                       ANSYS(R) CFX(R) Solver                       |
 |                                                                    |
 | 2024 R2                                                            |
 | Build 24.2 2024-05-13T11:42:54.771873                              |
 | Mon May 13 12:23:24 PDT 2024                                       |
 |                                                                    |
 |                        Executable Attributes                       |
 |                                                                    |
 |           double-64bit-int32-archfort-optimised-std-lcomp          |
 |                                                                    |
 | (C) 1996-2024 ANSYS, Inc.                                          |
 |                                                                    |
 | All rights reserved. Unauthorized use, distribution or duplication |
 | is prohibited. This product is subject to U.S. laws governing      |
 | export and re-export. For full Legal Notice, see documentation.    |
 +--------------------------------------------------------------------+




 +--------------------------------------------------------------------+
 |                  Job Information at Start of Run                   |
 +--------------------------------------------------------------------+

 Run mode:       parallel run (Intel(R) MPI Library 2021.8)

 Job started:    Tue Nov 26 13:05:39 2024

 +--------------------------------------------------------------------+
 |                        License Information                         |
 +--------------------------------------------------------------------+
 
 License Cap:    ANSYS CFD Solver
 License ID:     lamdpc7_intranet_epfl_ch-jena-12352-000741
 
 License Cap:    ANSYS HPC Parallel
 License ID:     lamdpc7_intranet_epfl_ch-jena-12352-000744

 INFO: You are using an academic license.


 +--------------------------------------------------------------------+
 |         Initial Memory Allocation  (Actual usage may vary)         |
 +--------------------------------------------------------------------+

 Allocated storage in:    Mwords
                          Mbytes

 Process   | Real       | Integer    | Character | Logical  | Double
 ----------+------------+------------+-----------+----------+----------
   Minimum |      17.64 |       4.28 |      9.35 |     0.12 |     0.01
  (     7) |     134.55 |      16.35 |      8.91 |     0.46 |     0.06
 ----------+------------+------------+-----------+----------+----------
   Maximum |      18.27 |       4.67 |      9.35 |     0.12 |     0.01
  (     8) |     139.38 |      17.83 |      8.91 |     0.46 |     0.06
 ----------+------------+------------+-----------+----------+----------
   Average |      17.92 |       4.51 |      9.35 |     0.12 |     0.01
           |     136.69 |      17.19 |      8.91 |     0.46 |     0.06
 ----------+------------+------------+-----------+----------+----------
     Total |     394.16 |      99.11 |    205.63 |     2.64 |     0.18
           |    3007.18 |     378.09 |    196.10 |    10.07 |     1.34
 ----------+------------+------------+-----------+----------+----------


 +--------------------------------------------------------------------+
 |            Host Memory Information (Mbytes): Solver                |
 +--------------------------------------------------------------------+
 |           Host         | Nproc |   System    |  Allocated  |   %   |
 +------------------------+-------+-------------+-------------+-------+
 | LAMDPC7                |   22  |   262064.50 |     3592.79 |  1.37 |
 +------------------------+-------+-------------+-------------+-------+


 +--------------------------------------------------------------------+
 |                     ****** Notice ******                           |
 | The Wall Heat Transfer Coefficient written to the results file for |
 | any turbulent phase with heat transfer is based on the turbulent   |
 | wall function coefficient. It is consistent with the Wall Heat Flux|
 | the wall temperature, and the Wall Adjacent Temperature            |
 | (near-wall temperature).  If you would like it to be based on a    |
 | user-specified bulk temperature instead, please set the expert     |
 | parameter "tbulk for htc = <value>".                               |
 +--------------------------------------------------------------------+

 +--------------------------------------------------------------------+
 |                      Topology Simplification                       |
 +--------------------------------------------------------------------+

 +--------------------------------------------------------------------+
 |                       ****** Warning ******                        |
 |                                                                    |
 | Topology simplification is activated with the following            |
 | restrictions:                                                      |
 |                                                                    |
 | - Mesh regions referenced only within User Fortran and NOT         |
 |   in the command file will cause the solver to stop.               |
 | - The solver will stop during any "Edit Run in Progress" step      |
 |   if new 2D regions are referenced.                                |
 +--------------------------------------------------------------------+

 +--------------------------------------------------------------------+
 |                          Mesh Statistics                           |
 +--------------------------------------------------------------------+
 | Domain Name          | Orthog. Angle | Exp. Factor  | Aspect Ratio |
 +----------------------+---------------+--------------+--------------+
 |                      | Minimum [deg] |   Maximum    |    Maximum   |
 +----------------------+---------------+--------------+--------------+
 | B14619               |       34.2 ok |        21  ! |      1336 OK |
 +----------------------+---------------+--------------+--------------+
 |                      |  %!  %ok  %OK | %!  %ok  %OK | %!  %ok  %OK |
 +----------------------+---------------+--------------+--------------+
 | B14619               |   0   <1  100 | <1   <1  100 |  0    0  100 |
 +----------------------+---------------+--------------+--------------+

 Domain Name : B14619

     Total Number of Nodes                                =      603853

     Total Number of Elements                             =     1273809
         Total Number of Tetrahedrons                     =      143957
         Total Number of Prisms                           =     1129852

     Total Number of Faces                                =       54088

 +--------------------------------------------------------------------+
 |      Initial Conditions Supplied by Fields in the Input Files      |
 +--------------------------------------------------------------------+

 Domain Name : B14619
     Absolute Pressure
     Courant Number
     Density
     Density Derivative wrt Pressure at Constant Temperature
     Density.Beta
     Density.Gradient
     Dynamic Viscosity
     Eddy Viscosity
     First Blending Function for BSL and SST model
     Isothermal Compressibility
     Local Speed of Sound
     Mach Number
     Pressure
     Pressure.Gradient
     Real Partition Number
     Second Blending Function for SST model
     Shear Strain Rate
     Specific Heat Capacity at Constant Volume
     Specific Volume
     Static Enthalpy
     Static Enthalpy.Gradient
     Static Entropy
     Temperature
     Total Density
     Total Pressure
     Total Temperature
     Turbulence Eddy Dissipation
     Turbulence Eddy Frequency
     Turbulence Kinetic Energy
     Velocity
     Velocity.Beta
     Velocity.Gradient
     Wall Distance
     Wall Scale
     Wall Scale.Gradient

 +--------------------------------------------------------------------+
 |                     Average Scale Information                      |
 +--------------------------------------------------------------------+

 Domain Name : B14619
     Global Length                                         = 1.5396E-01
     Minimum Extent                                        = 2.2433E-02
     Maximum Extent                                        = 9.5300E-01
     Density                                               = 9.2739E-01
     Dynamic Viscosity                                     = 1.9249E-05
     Velocity                                              = 6.3155E+01
     Advection Time                                        = 2.4378E-03
     Reynolds Number                                       = 4.6848E+05
     Speed of Sound                                        = 3.5670E+02
     Mach Number                                           = 1.7705E-01
     Thermal Conductivity                                  = 2.6100E-02
     Specific Heat Capacity at Constant Pressure           = 1.0044E+03
     Specific Heat Capacity at Constant Volume             = 7.1730E+02
     Specific Heat Ratio                                   = 1.4003E+00
     Prandtl Number                                        = 7.4074E-01
     Temperature Range                                     = 4.4126E+01

 +--------------------------------------------------------------------+
 |                Checking for Isolated Fluid Regions                 |
 +--------------------------------------------------------------------+
 
 No isolated fluid regions were found.

 +--------------------------------------------------------------------+
 |              The Equations Solved in This Calculation              |
 +--------------------------------------------------------------------+

 Subsystem : Momentum and Mass

   U-Mom
   V-Mom
   W-Mom
   P-Mass

 Subsystem : Heat Transfer

   H-Energy

 Subsystem : TurbKE and TurbFreq

   K-TurbKE
   O-TurbFreq
                   
 CFD Solver started: Tue Nov 26 13:05:51 2024


 +--------------------------------------------------------------------+
 |                       Convergence History                          |
 +--------------------------------------------------------------------+

 ======================================================================
 |                        Timescale Information                       |
 ----------------------------------------------------------------------
 |       Equation       |         Type          |      Timescale      |
 +----------------------+-----------------------+---------------------+
 | U-Mom                | Auto Timescale        |     5.29353E-04     |
 | V-Mom                | Auto Timescale        |     5.29353E-04     |
 | W-Mom                | Auto Timescale        |     5.29353E-04     |
 | P-Mass               | Auto Timescale        |     5.29353E-04     |
 +----------------------+-----------------------+---------------------+
 | H-Energy             | Auto Timescale        |     5.29353E-04     |
 +----------------------+-----------------------+---------------------+
 | K-TurbKE             | Auto Timescale        |     5.29353E-04     |
 | O-TurbFreq           | Auto Timescale        |     5.29353E-04     |
 +----------------------+-----------------------+---------------------+

 ======================================================================
 OUTER LOOP ITERATION =   40 (    1) CPU SECONDS = 5.427E+03 (3.175E+02)
 ----------------------------------------------------------------------
 |       Equation       | Rate | RMS Res | Max Res |  Linear Solution |
 +----------------------+------+---------+---------+------------------+
 | U-Mom                | 4.98 | 2.9E-04 | 1.8E-02 |       3.2E+00  ok|
 | V-Mom                |26.93 | 2.5E-05 | 4.1E-03 |       1.3E+01  ok|
 | W-Mom                |40.72 | 6.2E-05 | 4.0E-03 |       7.3E+00  ok|
 | P-Mass               |99.99 | 1.8E-03 | 2.3E-01 | 10.3  5.5E-02  OK|
 +----------------------+------+---------+---------+------------------+
 | H-Energy             |22.27 | 2.1E-03 | 8.2E-02 |  6.0  8.9E-02  OK|
 +----------------------+------+---------+---------+------------------+
 | K-TurbKE             |43.95 | 3.1E-02 | 2.4E-01 |  5.9  1.6E-02  OK|
 | O-TurbFreq           |31.74 | 8.1E-04 | 5.8E-02 | 11.3  1.6E-05  OK|
 +----------------------+------+---------+---------+------------------+

 ======================================================================
 |                        Timescale Information                       |
 ----------------------------------------------------------------------
 |       Equation       |         Type          |      Timescale      |
 +----------------------+-----------------------+---------------------+
 | U-Mom                | Auto Timescale        |     9.79776E-04     |
 | V-Mom                | Auto Timescale        |     9.79776E-04     |
 | W-Mom                | Auto Timescale        |     9.79776E-04     |
 | P-Mass               | Auto Timescale        |     9.79776E-04     |
 +----------------------+-----------------------+---------------------+
 | H-Energy             | Auto Timescale        |     9.79776E-04     |
 +----------------------+-----------------------+---------------------+
 | K-TurbKE             | Auto Timescale        |     9.79776E-04     |
 | O-TurbFreq           | Auto Timescale        |     9.79776E-04     |
 +----------------------+-----------------------+---------------------+

 ======================================================================
 OUTER LOOP ITERATION =   41 (    2) CPU SECONDS = 5.559E+03 (4.489E+02)
 ----------------------------------------------------------------------
 |       Equation       | Rate | RMS Res | Max Res |  Linear Solution |
 +----------------------+------+---------+---------+------------------+
 | U-Mom                |26.88 | 7.9E-03 | 2.5E-01 |       1.8E-01  ok|
 | V-Mom                |20.96 | 5.3E-04 | 2.3E-02 |       4.9E-01  ok|
 | W-Mom                |17.70 | 1.1E-03 | 4.8E-02 |       6.3E-01  ok|
 | P-Mass               | 0.40 | 7.1E-04 | 9.9E-02 |  5.6  9.5E-02  OK|
 +----------------------+------+---------+---------+------------------+
 | H-Energy             | 1.27 | 2.7E-03 | 7.2E-02 | 11.0  2.3E-02  OK|
 +----------------------+------+---------+---------+------------------+
 | K-TurbKE             | 1.24 | 3.9E-02 | 2.0E-01 |  6.0  2.6E-02  OK|
 | O-TurbFreq           |12.61 | 1.0E-02 | 1.1E-01 | 11.3  2.6E-06  OK|
 +----------------------+------+---------+---------+------------------+

 ======================================================================
 OUTER LOOP ITERATION =   42 (    3) CPU SECONDS = 5.678E+03 (5.679E+02)
 ----------------------------------------------------------------------
 |       Equation       | Rate | RMS Res | Max Res |  Linear Solution |
 +----------------------+------+---------+---------+------------------+
 | U-Mom                | 1.35 | 1.1E-02 | 3.0E-01 |       2.8E-02  OK|
 | V-Mom                | 1.28 | 6.7E-04 | 3.3E-02 |       1.5E-01  ok|
 | W-Mom                | 1.19 | 1.3E-03 | 1.1E-01 |       2.0E-01  ok|
 | P-Mass               | 0.26 | 1.9E-04 | 2.3E-02 | 10.3  7.8E-02  OK|
 +----------------------+------+---------+---------+------------------+
 | H-Energy             | 1.35 | 3.7E-03 | 2.2E-01 |  6.0  6.7E-02  OK|
 +----------------------+------+---------+---------+------------------+
 | K-TurbKE             | 1.08 | 4.2E-02 | 2.7E-01 |  6.0  2.4E-02  OK|
 | O-TurbFreq           | 1.35 | 1.4E-02 | 1.1E-01 | 11.3  1.7E-06  OK|
 +----------------------+------+---------+---------+------------------+

 ======================================================================
 OUTER LOOP ITERATION =   43 (    4) CPU SECONDS = 5.799E+03 (6.896E+02)
 ----------------------------------------------------------------------
 |       Equation       | Rate | RMS Res | Max Res |  Linear Solution |
 +----------------------+------+---------+---------+------------------+
 | U-Mom                | 1.28 | 1.4E-02 | 3.4E-01 |       6.5E-03  OK|
 | V-Mom                | 1.23 | 8.3E-04 | 7.3E-02 |       3.3E-02  OK|
 | W-Mom                | 1.45 | 1.9E-03 | 1.1E-01 |       3.8E-02  OK|
 | P-Mass               | 0.23 | 4.3E-05 | 3.2E-03 | 14.9  5.9E-02  OK|
 +--------------------------------------------------------------------+
 |                     ****** Notice ******                           |
 |  A wall has been placed at portion(s) of an OUTLET                 |
 |  boundary condition (at  28.5% of the faces,   4.5% of the area)   |
 |  to prevent fluid from flowing into the domain.                    |
 |  The boundary condition name is: Outlet.                           |
 |  The fluid name is: Fluid 1.                                       |
 |  If this situation persists, consider switching                    |
 |  to an Opening type boundary condition instead.                    |
 +--------------------------------------------------------------------+
 +----------------------+------+---------+---------+------------------+
 | H-Energy             | 1.50 | 5.5E-03 | 4.5E-01 |  6.1  4.7E-02  OK|
 +----------------------+------+---------+---------+------------------+
 | K-TurbKE             | 0.45 | 1.9E-02 | 3.1E-01 |  6.1  1.6E-02  OK|
 | O-TurbFreq           | 0.61 | 8.4E-03 | 8.9E-02 | 11.6  1.2E-06  OK|
 +----------------------+------+---------+---------+------------------+

 ======================================================================
 OUTER LOOP ITERATION =   44 (    5) CPU SECONDS = 5.925E+03 (8.156E+02)
 ----------------------------------------------------------------------
 |       Equation       | Rate | RMS Res | Max Res |  Linear Solution |
 +----------------------+------+---------+---------+------------------+
 | U-Mom                | 2.05 | 2.8E-02 | 5.7E-01 |       1.2E-03  OK|
 | V-Mom                | 1.62 | 1.3E-03 | 6.1E-02 |       2.0E-02  OK|
 | W-Mom                | 1.01 | 1.9E-03 | 1.2E-01 |       2.5E-02  OK|
 | P-Mass               | 0.48 | 2.1E-05 | 2.1E-03 | 14.9  7.7E-02  OK|
 +--------------------------------------------------------------------+
 |                     ****** Notice ******                           |
 |  A wall has been placed at portion(s) of an OUTLET                 |
 |  boundary condition (at  98.7% of the faces, 100.0% of the area)   |
 |  to prevent fluid from flowing into the domain.                    |
 |  The boundary condition name is: Outlet.                           |
 |  The fluid name is: Fluid 1.                                       |
 |  If this situation persists, consider switching                    |
 |  to an Opening type boundary condition instead.                    |
 +--------------------------------------------------------------------+
 +----------------------+------+---------+---------+------------------+
 | H-Energy             | 0.92 | 5.1E-03 | 3.7E-01 |  6.1  6.3E-02  OK|
 +----------------------+------+---------+---------+------------------+
 | K-TurbKE             | 0.66 | 1.2E-02 | 3.0E-01 |  6.0  1.3E-02  OK|
 | O-TurbFreq           | 0.17 | 1.4E-03 | 1.5E-02 | 11.3  7.9E-06  OK|
 +----------------------+------+---------+---------+------------------+

 ======================================================================
 OUTER LOOP ITERATION =   45 (    6) CPU SECONDS = 6.054E+03 (9.438E+02)
 ----------------------------------------------------------------------
 |       Equation       | Rate | RMS Res | Max Res |  Linear Solution |
 +----------------------+------+---------+---------+------------------+
 | U-Mom                | 1.05 | 2.9E-02 | 2.2E-01 |       1.6E-03  OK|
 | V-Mom                | 0.74 | 9.9E-04 | 6.7E-02 |       3.3E-02  OK|
 | W-Mom                | 0.68 | 1.3E-03 | 7.3E-02 |       4.7E-02  OK|
 | P-Mass               | 5.00 | 1.1E-04 | 1.1E-02 | 19.6  6.9E-02  OK|
 +--------------------------------------------------------------------+
 |                     ****** Notice ******                           |
 |  A wall has been placed at portion(s) of an OUTLET                 |
 |  boundary condition (at 100.0% of the faces, 100.0% of the area)   |
 |  to prevent fluid from flowing into the domain.                    |
 |  The boundary condition name is: Outlet.                           |
 |  The fluid name is: Fluid 1.                                       |
 |  If this situation persists, consider switching                    |
 |  to an Opening type boundary condition instead.                    |
 +--------------------------------------------------------------------+
 +----------------------+------+---------+---------+------------------+
 | H-Energy             | 0.75 | 3.8E-03 | 1.2E-01 |  6.0  6.3E-02  OK|
 +----------------------+------+---------+---------+------------------+
 | K-TurbKE             | 0.49 | 6.1E-03 | 1.8E-01 |  5.9  1.1E-02  OK|
 | O-TurbFreq           | 3.74 | 5.4E-03 | 4.8E-02 | 11.2  9.0E-07  OK|
 +----------------------+------+---------+---------+------------------+

 ======================================================================
 |                        Timescale Information                       |
 ----------------------------------------------------------------------
 |       Equation       |         Type          |      Timescale      |
 +----------------------+-----------------------+---------------------+
 | U-Mom                | Auto Timescale        |     2.71356E-03     |
 | V-Mom                | Auto Timescale        |     2.71356E-03     |
 | W-Mom                | Auto Timescale        |     2.71356E-03     |
 | P-Mass               | Auto Timescale        |     2.71356E-03     |
 +----------------------+-----------------------+---------------------+
 | H-Energy             | Auto Timescale        |     2.71356E-03     |
 +----------------------+-----------------------+---------------------+
 | K-TurbKE             | Auto Timescale        |     2.71356E-03     |
 | O-TurbFreq           | Auto Timescale        |     2.71356E-03     |
 +----------------------+-----------------------+---------------------+

 ======================================================================
 OUTER LOOP ITERATION =   46 (    7) CPU SECONDS = 6.186E+03 (1.076E+03)
 ----------------------------------------------------------------------
 |       Equation       | Rate | RMS Res | Max Res |  Linear Solution |
 +----------------------+------+---------+---------+------------------+
 | U-Mom                | 0.25 | 7.3E-03 | 2.0E-01 |       2.3E-02  OK|
 | V-Mom                | 0.69 | 6.8E-04 | 3.6E-02 |       7.5E-02  OK|
 | W-Mom                | 0.70 | 9.1E-04 | 4.4E-02 |       1.1E-01  ok|
 | P-Mass               | 0.59 | 6.2E-05 | 6.8E-03 | 14.9  5.6E-02  OK|
 +--------------------------------------------------------------------+
 |                     ****** Notice ******                           |
 |  A wall has been placed at portion(s) of an OUTLET                 |
 |  boundary condition (at 100.0% of the faces, 100.0% of the area)   |
 |  to prevent fluid from flowing into the domain.                    |
 |  The boundary condition name is: Outlet.                           |
 |  The fluid name is: Fluid 1.                                       |
 |  If this situation persists, consider switching                    |
 |  to an Opening type boundary condition instead.                    |
 +--------------------------------------------------------------------+
 +----------------------+------+---------+---------+------------------+
 | H-Energy             | 0.94 | 3.6E-03 | 8.2E-02 |  6.1  9.4E-02  OK|
 +----------------------+------+---------+---------+------------------+
 | K-TurbKE             | 1.39 | 8.5E-03 | 3.4E-01 |  6.1  1.2E-02  OK|
 | O-TurbFreq           | 1.84 | 9.9E-03 | 9.7E-02 | 11.5  6.2E-07  OK|
 +----------------------+------+---------+---------+------------------+

 ======================================================================
 OUTER LOOP ITERATION =   47 (    8) CPU SECONDS = 6.316E+03 (1.206E+03)
 ----------------------------------------------------------------------
 |       Equation       | Rate | RMS Res | Max Res |  Linear Solution |
 +----------------------+------+---------+---------+------------------+
 | U-Mom                | 1.65 | 1.2E-02 | 1.6E-01 |       5.4E-02  OK|
 | V-Mom                | 1.09 | 7.5E-04 | 4.7E-02 |       9.9E-02  OK|
 | W-Mom                | 1.02 | 9.2E-04 | 6.6E-02 |       1.8E-01  ok|
 | P-Mass               | 0.53 | 3.3E-05 | 2.4E-03 |  5.6  6.0E-02  OK|
 +--------------------------------------------------------------------+
 |                     ****** Notice ******                           |
 |  A wall has been placed at portion(s) of an OUTLET                 |
 |  boundary condition (at 100.0% of the faces, 100.0% of the area)   |
 |  to prevent fluid from flowing into the domain.                    |
 |  The boundary condition name is: Outlet.                           |
 |  The fluid name is: Fluid 1.                                       |
 |  If this situation persists, consider switching                    |
 |  to an Opening type boundary condition instead.                    |
 +--------------------------------------------------------------------+
 +----------------------+------+---------+---------+------------------+
 | H-Energy             | 1.28 | 4.6E-03 | 2.5E-01 |  6.1  8.8E-02  OK|
 +----------------------+------+---------+---------+------------------+
 | K-TurbKE             | 0.59 | 5.0E-03 | 2.7E-01 |  6.1  1.2E-02  OK|
 | O-TurbFreq           | 0.71 | 7.0E-03 | 5.6E-02 | 11.5  6.4E-07  OK|
 +----------------------+------+---------+---------+------------------+

 ======================================================================
 OUTER LOOP ITERATION =   48 (    9) CPU SECONDS = 6.440E+03 (1.330E+03)
 ----------------------------------------------------------------------
 |       Equation       | Rate | RMS Res | Max Res |  Linear Solution |
 +----------------------+------+---------+---------+------------------+
 | U-Mom                | 1.42 | 1.7E-02 | 1.6E-01 |       6.6E-03  OK|
 | V-Mom                | 1.52 | 1.1E-03 | 3.1E-02 |       2.2E-02  OK|
 | W-Mom                | 1.48 | 1.4E-03 | 4.2E-02 |       2.5E-02  OK|
 | P-Mass               | 0.37 | 1.2E-05 | 7.7E-04 | 19.6  5.7E-02  OK|
 +--------------------------------------------------------------------+
 |                     ****** Notice ******                           |
 |  A wall has been placed at portion(s) of an OUTLET                 |
 |  boundary condition (at 100.0% of the faces, 100.0% of the area)   |
 |  to prevent fluid from flowing into the domain.                    |
 |  The boundary condition name is: Outlet.                           |
 |  The fluid name is: Fluid 1.                                       |
 |  If this situation persists, consider switching                    |
 |  to an Opening type boundary condition instead.                    |
 +--------------------------------------------------------------------+
 +----------------------+------+---------+---------+------------------+
 | H-Energy             | 0.97 | 4.5E-03 | 2.1E-01 |  6.2  8.2E-02  OK|
 +----------------------+------+---------+---------+------------------+
 | K-TurbKE             | 1.34 | 6.6E-03 | 3.8E-01 |  6.2  1.9E-02  OK|
 | O-TurbFreq           | 0.10 | 7.1E-04 | 1.1E-02 | 11.6  2.3E-06  OK|
 +----------------------+------+---------+---------+------------------+

 ======================================================================
 OUTER LOOP ITERATION =   49 (   10) CPU SECONDS = 6.570E+03 (1.461E+03)
 ----------------------------------------------------------------------
 |       Equation       | Rate | RMS Res | Max Res |  Linear Solution |
 +----------------------+------+---------+---------+------------------+
 | U-Mom                | 0.20 | 3.4E-03 | 9.5E-02 |       2.8E-02  OK|
 | V-Mom                | 0.61 | 6.9E-04 | 2.4E-02 |       3.2E-02  OK|
 | W-Mom                | 0.65 | 8.9E-04 | 5.6E-02 |       3.5E-02  OK|
 | P-Mass               | 0.75 | 9.1E-06 | 6.6E-04 | 14.9  6.4E-02  OK|
 +--------------------------------------------------------------------+
 |                     ****** Notice ******                           |
 |  A wall has been placed at portion(s) of an OUTLET                 |
 |  boundary condition (at 100.0% of the faces, 100.0% of the area)   |
 |  to prevent fluid from flowing into the domain.                    |
 |  The boundary condition name is: Outlet.                           |
 |  The fluid name is: Fluid 1.                                       |
 |  If this situation persists, consider switching                    |
 |  to an Opening type boundary condition instead.                    |
 +--------------------------------------------------------------------+
 +----------------------+------+---------+---------+------------------+
 | H-Energy             | 0.75 | 3.4E-03 | 1.3E-01 |  6.2  8.1E-02  OK|
 +----------------------+------+---------+---------+------------------+
 | K-TurbKE             | 0.81 | 5.4E-03 | 1.4E-01 |  6.2  1.5E-02  OK|
 | O-TurbFreq           | 4.82 | 3.4E-03 | 3.6E-02 | 11.6  6.6E-07  OK|
 +----------------------+------+---------+---------+------------------+

 ======================================================================
 OUTER LOOP ITERATION =   50 (   11) CPU SECONDS = 6.697E+03 (1.587E+03)
 ----------------------------------------------------------------------
 |       Equation       | Rate | RMS Res | Max Res |  Linear Solution |
 +----------------------+------+---------+---------+------------------+
 | U-Mom                | 2.01 | 6.8E-03 | 5.8E-02 |       8.0E-03  OK|
 | V-Mom                | 0.79 | 5.5E-04 | 2.3E-02 |       3.9E-02  OK|
 | W-Mom                | 0.73 | 6.5E-04 | 2.1E-02 |       4.6E-02  OK|
 | P-Mass               | 0.62 | 5.6E-06 | 3.7E-04 | 10.3  4.7E-02  OK|
 +--------------------------------------------------------------------+
 |                     ****** Notice ******                           |
 |  A wall has been placed at portion(s) of an OUTLET                 |
 |  boundary condition (at 100.0% of the faces, 100.0% of the area)   |
 |  to prevent fluid from flowing into the domain.                    |
 |  The boundary condition name is: Outlet.                           |
 |  The fluid name is: Fluid 1.                                       |
 |  If this situation persists, consider switching                    |
 |  to an Opening type boundary condition instead.                    |
 +--------------------------------------------------------------------+
 +----------------------+------+---------+---------+------------------+
 | H-Energy             | 0.95 | 3.2E-03 | 7.3E-02 |  6.2  6.9E-02  OK|
 +----------------------+------+---------+---------+------------------+
 | K-TurbKE             | 1.00 | 5.3E-03 | 6.1E-02 |  6.2  1.4E-02  OK|
 | O-TurbFreq           | 0.31 | 1.1E-03 | 1.6E-02 | 11.5  9.1E-07  OK|
 +----------------------+------+---------+---------+------------------+

 ======================================================================
 |                        Timescale Information                       |
 ----------------------------------------------------------------------
 |       Equation       |         Type          |      Timescale      |
 +----------------------+-----------------------+---------------------+
 | U-Mom                | Auto Timescale        |     2.00267E-02     |
 | V-Mom                | Auto Timescale        |     2.00267E-02     |
 | W-Mom                | Auto Timescale        |     2.00267E-02     |
 | P-Mass               | Auto Timescale        |     2.00267E-02     |
 +----------------------+-----------------------+---------------------+
 | H-Energy             | Auto Timescale        |     2.00267E-02     |
 +----------------------+-----------------------+---------------------+
 | K-TurbKE             | Auto Timescale        |     2.00267E-02     |
 | O-TurbFreq           | Auto Timescale        |     2.00267E-02     |
 +----------------------+-----------------------+---------------------+

 ======================================================================
 OUTER LOOP ITERATION =   51 (   12) CPU SECONDS = 6.821E+03 (1.711E+03)
 ----------------------------------------------------------------------
 |       Equation       | Rate | RMS Res | Max Res |  Linear Solution |
 +----------------------+------+---------+---------+------------------+
 | U-Mom                | 1.38 | 9.4E-03 | 1.2E-01 |       4.3E-02  OK|
 | V-Mom                | 1.09 | 6.0E-04 | 2.6E-02 |       1.1E-01  ok|
 | W-Mom                | 0.92 | 6.0E-04 | 1.9E-02 |       6.9E-02  OK|
 | P-Mass               | 0.58 | 3.3E-06 | 1.8E-04 | 19.6  7.7E-02  OK|
 +--------------------------------------------------------------------+
 |                     ****** Notice ******                           |
 |  A wall has been placed at portion(s) of an OUTLET                 |
 |  boundary condition (at 100.0% of the faces, 100.0% of the area)   |
 |  to prevent fluid from flowing into the domain.                    |
 |  The boundary condition name is: Outlet.                           |
 |  The fluid name is: Fluid 1.                                       |
 |  If this situation persists, consider switching                    |
 |  to an Opening type boundary condition instead.                    |
 +--------------------------------------------------------------------+
 +----------------------+------+---------+---------+------------------+
 | H-Energy             | 0.94 | 3.0E-03 | 7.2E-02 | 11.2  4.7E-02  OK|
 +----------------------+------+---------+---------+------------------+
 | K-TurbKE             | 1.51 | 8.0E-03 | 1.1E-01 |  6.1  3.0E-02  OK|
 | O-TurbFreq           | 0.40 | 4.2E-04 | 6.5E-03 | 11.5  1.2E-06  OK|
 +----------------------+------+---------+---------+------------------+

 ======================================================================
 OUTER LOOP ITERATION =   52 (   13) CPU SECONDS = 6.952E+03 (1.843E+03)
 ----------------------------------------------------------------------
 |       Equation       | Rate | RMS Res | Max Res |  Linear Solution |
 +----------------------+------+---------+---------+------------------+
 | U-Mom                | 0.20 | 1.9E-03 | 4.4E-02 |       1.6E-01  ok|
 | V-Mom                | 0.92 | 5.5E-04 | 2.8E-02 |       1.4E-01  ok|
 | W-Mom                | 1.11 | 6.6E-04 | 2.5E-02 |       1.5E-01  ok|
 | P-Mass               | 0.84 | 2.7E-06 | 1.3E-04 |  5.6  7.8E-02  OK|
 +--------------------------------------------------------------------+
 |                     ****** Notice ******                           |
 |  A wall has been placed at portion(s) of an OUTLET                 |
 |  boundary condition (at 100.0% of the faces, 100.0% of the area)   |
 |  to prevent fluid from flowing into the domain.                    |
 |  The boundary condition name is: Outlet.                           |
 |  The fluid name is: Fluid 1.                                       |
 |  If this situation persists, consider switching                    |
 |  to an Opening type boundary condition instead.                    |
 +--------------------------------------------------------------------+
 +----------------------+------+---------+---------+------------------+
 | H-Energy             | 1.04 | 3.2E-03 | 6.8E-02 | 11.3  4.1E-02  OK|
 +----------------------+------+---------+---------+------------------+
 | K-TurbKE             | 0.53 | 4.2E-03 | 1.0E-01 |  6.1  2.4E-02  OK|
 | O-TurbFreq           | 6.68 | 2.8E-03 | 2.4E-02 | 11.5  3.7E-07  OK|
 +----------------------+------+---------+---------+------------------+

 ======================================================================
 OUTER LOOP ITERATION =   53 (   14) CPU SECONDS = 7.072E+03 (1.962E+03)
 ----------------------------------------------------------------------
 |       Equation       | Rate | RMS Res | Max Res |  Linear Solution |
 +----------------------+------+---------+---------+------------------+
 | U-Mom                | 1.05 | 2.0E-03 | 3.7E-02 |       9.0E-02  OK|
 | V-Mom                | 0.97 | 5.3E-04 | 2.5E-02 |       7.4E-02  OK|
 | W-Mom                | 0.90 | 6.0E-04 | 2.3E-02 |       5.0E-02  OK|
 | P-Mass               | 0.61 | 1.7E-06 | 9.4E-05 | 10.3  4.6E-02  OK|
 +--------------------------------------------------------------------+
 |                     ****** Notice ******                           |
 |  A wall has been placed at portion(s) of an OUTLET                 |
 |  boundary condition (at 100.0% of the faces, 100.0% of the area)   |
 |  to prevent fluid from flowing into the domain.                    |
 |  The boundary condition name is: Outlet.                           |
 |  The fluid name is: Fluid 1.                                       |
 |  If this situation persists, consider switching                    |
 |  to an Opening type boundary condition instead.                    |
 +--------------------------------------------------------------------+
 +----------------------+------+---------+---------+------------------+
 | H-Energy             | 0.76 | 2.4E-03 | 4.1E-02 | 11.3  4.0E-02  OK|
 +----------------------+------+---------+---------+------------------+
 | K-TurbKE             | 0.98 | 4.2E-03 | 1.3E-01 |  6.1  2.4E-02  OK|
 | O-TurbFreq           | 0.95 | 2.7E-03 | 1.7E-02 | 11.5  3.7E-07  OK|
 +----------------------+------+---------+---------+------------------+

 ======================================================================
 OUTER LOOP ITERATION =   54 (   15) CPU SECONDS = 7.196E+03 (2.086E+03)
 ----------------------------------------------------------------------
 |       Equation       | Rate | RMS Res | Max Res |  Linear Solution |
 +----------------------+------+---------+---------+------------------+
 | U-Mom                | 0.93 | 1.9E-03 | 3.5E-02 |       8.1E-02  OK|
 | V-Mom                | 0.95 | 5.0E-04 | 3.2E-02 |       5.8E-02  OK|
 | W-Mom                | 1.10 | 6.5E-04 | 3.0E-02 |       3.6E-02  OK|
 | P-Mass               | 0.67 | 1.1E-06 | 7.0E-05 | 10.3  5.6E-02  OK|
 +--------------------------------------------------------------------+
 |                     ****** Notice ******                           |
 |  A wall has been placed at portion(s) of an OUTLET                 |
 |  boundary condition (at 100.0% of the faces, 100.0% of the area)   |
 |  to prevent fluid from flowing into the domain.                    |
 |  The boundary condition name is: Outlet.                           |
 |  The fluid name is: Fluid 1.                                       |
 |  If this situation persists, consider switching                    |
 |  to an Opening type boundary condition instead.                    |
 +--------------------------------------------------------------------+
 +----------------------+------+---------+---------+------------------+
 | H-Energy             | 0.94 | 2.2E-03 | 5.0E-02 | 11.3  3.2E-02  OK|
 +----------------------+------+---------+---------+------------------+
 | K-TurbKE             | 0.97 | 4.0E-03 | 1.4E-01 |  6.1  2.3E-02  OK|
 | O-TurbFreq           | 0.98 | 2.6E-03 | 1.7E-02 | 11.4  3.2E-07  OK|
 +----------------------+------+---------+---------+------------------+

 ======================================================================
 OUTER LOOP ITERATION =   55 (   16) CPU SECONDS = 7.318E+03 (2.209E+03)
 ----------------------------------------------------------------------
 |       Equation       | Rate | RMS Res | Max Res |  Linear Solution |
 +----------------------+------+---------+---------+------------------+
 | U-Mom                | 0.70 | 1.3E-03 | 3.9E-02 |       7.5E-02  OK|
 | V-Mom                | 1.07 | 5.4E-04 | 4.1E-02 |       4.8E-02  OK|
 | W-Mom                | 1.05 | 6.9E-04 | 3.2E-02 |       3.0E-02  OK|
 | P-Mass               | 0.73 | 8.2E-07 | 5.4E-05 | 10.3  4.7E-02  OK|
 +--------------------------------------------------------------------+
 |                     ****** Notice ******                           |
 |  A wall has been placed at portion(s) of an OUTLET                 |
 |  boundary condition (at 100.0% of the faces, 100.0% of the area)   |
 |  to prevent fluid from flowing into the domain.                    |
 |  The boundary condition name is: Outlet.                           |
 |  The fluid name is: Fluid 1.                                       |
 |  If this situation persists, consider switching                    |
 |  to an Opening type boundary condition instead.                    |
 +--------------------------------------------------------------------+
 +----------------------+------+---------+---------+------------------+
 | H-Energy             | 0.87 | 1.9E-03 | 6.0E-02 | 11.3  2.5E-02  OK|
 +----------------------+------+---------+---------+------------------+
 | K-TurbKE             | 1.13 | 4.6E-03 | 1.9E-01 |  6.1  2.1E-02  OK|
 | O-TurbFreq           | 0.97 | 2.6E-03 | 1.5E-02 | 11.4  3.2E-07  OK|
 +----------------------+------+---------+---------+------------------+

 ======================================================================
 |                        Timescale Information                       |
 ----------------------------------------------------------------------
 |       Equation       |         Type          |      Timescale      |
 +----------------------+-----------------------+---------------------+
 | U-Mom                | Auto Timescale        |     7.78604E-02     |
 | V-Mom                | Auto Timescale        |     7.78604E-02     |
 | W-Mom                | Auto Timescale        |     7.78604E-02     |
 | P-Mass               | Auto Timescale        |     7.78604E-02     |
 +----------------------+-----------------------+---------------------+
 | H-Energy             | Auto Timescale        |     7.78604E-02     |
 +----------------------+-----------------------+---------------------+
 | K-TurbKE             | Auto Timescale        |     7.78604E-02     |
 | O-TurbFreq           | Auto Timescale        |     7.78604E-02     |
 +----------------------+-----------------------+---------------------+

 ======================================================================
 OUTER LOOP ITERATION =   56 (   17) CPU SECONDS = 7.440E+03 (2.331E+03)
 ----------------------------------------------------------------------
 |       Equation       | Rate | RMS Res | Max Res |  Linear Solution |
 +----------------------+------+---------+---------+------------------+
 | U-Mom                | 0.95 | 1.3E-03 | 5.8E-02 |       8.5E-02  OK|
 | V-Mom                | 0.89 | 4.8E-04 | 4.1E-02 |       8.2E-02  OK|
 | W-Mom                | 0.95 | 6.6E-04 | 3.3E-02 |       3.7E-02  OK|
 | P-Mass               | 0.85 | 7.0E-07 | 4.7E-05 | 10.3  6.6E-02  OK|
 +--------------------------------------------------------------------+
 |                     ****** Notice ******                           |
 |  A wall has been placed at portion(s) of an OUTLET                 |
 |  boundary condition (at 100.0% of the faces, 100.0% of the area)   |
 |  to prevent fluid from flowing into the domain.                    |
 |  The boundary condition name is: Outlet.                           |
 |  The fluid name is: Fluid 1.                                       |
 |  If this situation persists, consider switching                    |
 |  to an Opening type boundary condition instead.                    |
 +--------------------------------------------------------------------+
 +----------------------+------+---------+---------+------------------+
 | H-Energy             | 1.05 | 2.0E-03 | 6.7E-02 | 11.2  6.3E-02  OK|
 +----------------------+------+---------+---------+------------------+
 | K-TurbKE             | 1.23 | 5.6E-03 | 2.4E-01 |  6.1  2.4E-02  OK|
 | O-TurbFreq           | 0.98 | 2.5E-03 | 1.4E-02 | 11.4  3.3E-07  OK|
 +----------------------+------+---------+---------+------------------+

 ======================================================================
 OUTER LOOP ITERATION =   57 (   18) CPU SECONDS = 7.563E+03 (2.453E+03)
 ----------------------------------------------------------------------
 |       Equation       | Rate | RMS Res | Max Res |  Linear Solution |
 +----------------------+------+---------+---------+------------------+
 | U-Mom                | 0.84 | 1.1E-03 | 4.1E-02 |       1.0E-01  ok|
 | V-Mom                | 0.90 | 4.3E-04 | 3.1E-02 |       6.7E-02  OK|
 | W-Mom                | 1.00 | 6.5E-04 | 3.8E-02 |       5.0E-02  OK|
 | P-Mass               | 0.91 | 6.3E-07 | 4.3E-05 | 10.3  5.2E-02  OK|
 +--------------------------------------------------------------------+
 |                     ****** Notice ******                           |
 |  A wall has been placed at portion(s) of an OUTLET                 |
 |  boundary condition (at  49.1% of the faces,  51.1% of the area)   |
 |  to prevent fluid from flowing into the domain.                    |
 |  The boundary condition name is: Outlet.                           |
 |  The fluid name is: Fluid 1.                                       |
 |  If this situation persists, consider switching                    |
 |  to an Opening type boundary condition instead.                    |
 +--------------------------------------------------------------------+
 +----------------------+------+---------+---------+------------------+
 | H-Energy             | 0.96 | 2.0E-03 | 6.5E-02 | 11.3  5.2E-02  OK|
 +----------------------+------+---------+---------+------------------+
 | K-TurbKE             | 1.08 | 6.1E-03 | 3.2E-01 |  6.1  2.1E-02  OK|
 | O-TurbFreq           | 3.79 | 9.5E-03 | 4.9E-02 | 11.4  3.0E-07  OK|
 +----------------------+------+---------+---------+------------------+

 ======================================================================
 OUTER LOOP ITERATION =   58 (   19) CPU SECONDS = 7.685E+03 (2.575E+03)
 ----------------------------------------------------------------------
 |       Equation       | Rate | RMS Res | Max Res |  Linear Solution |
 +----------------------+------+---------+---------+------------------+
 | U-Mom                | 1.42 | 1.5E-03 | 1.4E-01 |       4.9E-01  ok|
 | V-Mom                | 0.00 | 1.1E-07 | 6.9E-06 |       5.7E+02  F |
 | W-Mom                | 0.00 | 1.8E-07 | 7.3E-06 |       3.7E+02  F |
 | P-Mass               | 0.01 | 6.9E-09 | 1.0E-06 | 10.3  3.7E+00  F |
 +----------------------+------+---------+---------+------------------+
 | H-Energy             | 3.84 | 7.5E-03 | 2.7E-01 |  6.1  1.5E-02  OK|
 +----------------------+------+---------+---------+------------------+
 | K-TurbKE             | 1.27 | 7.7E-03 | 4.1E-01 |  6.1  8.8E-03  OK|
 | O-TurbFreq           | 0.95 | 9.1E-03 | 5.0E-01 | 11.5  1.2E-04  OK|
 +----------------------+------+---------+---------+------------------+
 +--------------------------------------------------------------------+
 | Notice: The maximum Mach number is  1.253E+02.                     |
[...]
 OUTER LOOP ITERATION =  138 (   99) CPU SECONDS = 1.736E+04 (1.225E+04)
 ----------------------------------------------------------------------
 |       Equation       | Rate | RMS Res | Max Res |  Linear Solution |
 +----------------------+------+---------+---------+------------------+
 | U-Mom                | 0.98 | 7.5E-05 | 1.4E-02 |       8.5E-01  ok|
 | V-Mom                | 1.00 | 5.2E-05 | 2.3E-02 |       1.0E+00  F |
 | W-Mom                | 1.01 | 9.4E-04 | 1.8E-01 |       1.0E+00  F |
 | P-Mass               | 1.01 | 4.4E-07 | 9.9E-05 | 10.3  1.0E+00  F |
 +--------------------------------------------------------------------+
 |                     ****** Notice ******                           |
 |  A wall has been placed at portion(s) of an OUTLET                 |
 |  boundary condition (at  17.4% of the faces,   1.5% of the area)   |
 |  to prevent fluid from flowing into the domain.                    |
 |  The boundary condition name is: Outlet.                           |
 |  The fluid name is: Fluid 1.                                       |
 |  If this situation persists, consider switching                    |
 |  to an Opening type boundary condition instead.                    |
 +--------------------------------------------------------------------+
 +----------------------+------+---------+---------+------------------+
 | H-Energy             | 0.96 | 2.8E-05 | 5.8E-03 |  6.1  5.7E-02  OK|
 +----------------------+------+---------+---------+------------------+
 | K-TurbKE             | 0.90 | 1.2E-04 | 1.9E-02 |  6.1  1.7E-02  OK|
 | O-TurbFreq           | 0.52 | 3.3E-06 | 2.4E-03 | 11.3  1.2E-05  OK|
 +----------------------+------+---------+---------+------------------+

 ======================================================================
 OUTER LOOP ITERATION =  139 (  100) CPU SECONDS = 1.748E+04 (1.237E+04)
 ----------------------------------------------------------------------
 |       Equation       | Rate | RMS Res | Max Res |  Linear Solution |
 +----------------------+------+---------+---------+------------------+
 | U-Mom                | 0.98 | 7.3E-05 | 1.4E-02 |       1.1E+00  F |
 | V-Mom                | 1.00 | 5.2E-05 | 2.3E-02 |       1.0E+00  ok|
 | W-Mom                | 1.01 | 9.5E-04 | 1.8E-01 |       1.0E+00  F |
 | P-Mass               | 1.01 | 4.5E-07 | 1.0E-04 | 10.3  1.0E+00  F |
 +--------------------------------------------------------------------+
 |                     ****** Notice ******                           |
 |  A wall has been placed at portion(s) of an OUTLET                 |
 |  boundary condition (at  16.6% of the faces,   1.5% of the area)   |
 |  to prevent fluid from flowing into the domain.                    |
 |  The boundary condition name is: Outlet.                           |
 |  The fluid name is: Fluid 1.                                       |
 |  If this situation persists, consider switching                    |
 |  to an Opening type boundary condition instead.                    |
 +--------------------------------------------------------------------+
 +----------------------+------+---------+---------+------------------+
 | H-Energy             | 0.96 | 2.6E-05 | 4.5E-03 |  6.1  5.6E-02  OK|
 +----------------------+------+---------+---------+------------------+
 | K-TurbKE             | 0.91 | 1.1E-04 | 1.6E-02 |  6.1  1.6E-02  OK|
 | O-TurbFreq           | 0.53 | 1.7E-06 | 1.2E-03 | 11.3  1.2E-05  OK|
 +----------------------+------+---------+---------+------------------+
                   
 CFD Solver finished: Tue Nov 26 13:15:04 2024
 CFD Solver wall clock seconds: 5.5327E+02

 ======================================================================
              Termination and Interrupt Condition Summary
 ======================================================================
    
 CFD Solver: Run duration reached
   (Maximum number of outer iterations)

 ======================================================================
              Boundary Flow and Total Source Term Summary
 ======================================================================

 +--------------------------------------------------------------------+
 |                               U-Mom                                |
 +--------------------------------------------------------------------+
 Boundary         : Bottomwall                             -5.4138E-04
 Boundary         : Inlet                                  -6.8735E+01
 Boundary         : Outlet                                  6.7738E+01
 Boundary         : Sidewalls                               9.9748E-01
 Boundary         : Topwall                                -5.3748E-04
                                                           -----------
 Domain Imbalance :                                        -7.5860E-06

 +--------------------------------------------------------------------+
 |                               V-Mom                                |
 +--------------------------------------------------------------------+
 Boundary         : Bottomwall                             -5.5992E-06
 Boundary         : Inlet                                   1.3658E-08
 Boundary         : Outlet                                 -5.8056E-05
 Boundary         : Sidewalls                               7.0229E-05
 Boundary         : Topwall                                -5.1237E-06
                                                           -----------
 Domain Imbalance :                                         1.4636E-06

 +--------------------------------------------------------------------+
 |                               W-Mom                                |
 +--------------------------------------------------------------------+
 Boundary         : Bottomwall                             -2.6044E+03
 Boundary         : Inlet                                  -2.4143E-09
 Boundary         : Outlet                                  3.8540E-05
 Boundary         : Sidewalls                               1.0632E-06
 Boundary         : Topwall                                 2.6044E+03
                                                           -----------
 Domain Imbalance :                                         2.0860E-04

 +--------------------------------------------------------------------+
 |                               P-Mass                               |
 +--------------------------------------------------------------------+
 Boundary         : Inlet                                   1.9247E-03
 Boundary         : Outlet                                 -1.9267E-03
                                                           -----------
 Domain Imbalance :                                        -1.9422E-06

 +--------------------------------------------------------------------+
 |                              H-Energy                              |
 +--------------------------------------------------------------------+
 Boundary         : Bottomwall                             -2.4984E+01
 Boundary         : Inlet                                   7.7327E+01
 Boundary         : Outlet                                 -2.0491E+01
 Boundary         : Sidewalls                              -6.9611E+00
 Boundary         : Topwall                                -2.4912E+01
 Domain Src (Pos) : B14619                                  6.5499E-04
                                                           -----------
 Domain Imbalance :                                        -2.0048E-02


 +--------------------------------------------------------------------+
 |                     Normalised Imbalance Summary                   |
 +--------------------------------------------------------------------+
 |       Equation       |      Maximum Flow     |     Imbalance (%)   |
 +--------------------------------------------------------------------+
 | U-Mom                |       2.6044E+03      |       -0.0000       |
 | V-Mom                |       2.6044E+03      |        0.0000       |
 | W-Mom                |       2.6044E+03      |        0.0000       |
 | P-Mass               |       1.9267E-03      |       -0.1008       |
 +----------------------+-----------------------+---------------------+
 | H-Energy             |       7.7327E+01      |       -0.0259       |
 +----------------------+-----------------------+---------------------+

 ======================================================================
                     Wall Force and Moment Summary
 ======================================================================
                                                                          
 Notes:
 1. Pressure integrals exclude the reference pressure.  To include
    it, set the expert parameter 'include pref in forces = t'.


 +--------------------------------------------------------------------+
 |                      Pressure Force On Walls                       |
 +--------------------------------------------------------------------+
                                    X-Comp.      Y-Comp.      Z-Comp.

 Domain Group: B14619

 Bottomwall                       0.0000E+00   0.0000E+00   2.6044E+03
 Sidewalls                       -9.9766E-01  -6.8996E-05  -8.2266E-07
 Topwall                          0.0000E+00   0.0000E+00  -2.6044E+03
                                  -----------  -----------  -----------
 Domain Group Totals :           -9.9766E-01  -6.8996E-05  -1.6982E-04


 +--------------------------------------------------------------------+
 |                       Viscous Force On Walls                       |
 +--------------------------------------------------------------------+
                                    X-Comp.      Y-Comp.      Z-Comp.

 Domain Group: B14619

 Bottomwall                       5.4138E-04   5.5992E-06   3.4052E-16
 Sidewalls                        1.7823E-04  -1.2331E-06  -2.4055E-07
 Topwall                          5.3748E-04   5.1237E-06   7.6747E-16
                                  -----------  -----------  -----------
 Domain Group Totals :            1.2571E-03   9.4898E-06  -2.4055E-07


 +--------------------------------------------------------------------+
 |                      Pressure Moment On Walls                      |
 +--------------------------------------------------------------------+
                                    X-Comp.      Y-Comp.      Z-Comp.

 Domain Group: B14619

 Bottomwall                       2.2887E+02  -1.2377E+03   0.0000E+00
 Sidewalls                       -2.6405E-06  -1.1190E-02   1.7273E-01
 Topwall                         -2.2887E+02   1.2377E+03   0.0000E+00
                                  -----------  -----------  -----------
 Domain Group Totals :           -2.4969E-05  -1.1028E-02   1.7273E-01


 +--------------------------------------------------------------------+
 |                       Viscous Moment On Walls                      |
 +--------------------------------------------------------------------+
                                    X-Comp.      Y-Comp.      Z-Comp.

 Domain Group: B14619

 Bottomwall                      -2.0863E-16   2.1406E-15  -4.2642E-05
 Sidewalls                       -6.8191E-08   2.2213E-06  -1.7008E-05
 Topwall                         -1.1494E-07   1.2057E-05  -4.2587E-05
                                  -----------  -----------  -----------
 Domain Group Totals :           -1.8313E-07   1.4279E-05  -1.0224E-04


 +--------------------------------------------------------------------+
 |                   Locations of Maximum Residuals                   |
 +--------------------------------------------------------------------+
 |       Equation       |      Domain Name      |     Node Number     |
 +--------------------------------------------------------------------+
 | U-Mom                | B14619                |         575108      |
 | V-Mom                | B14619                |         574955      |
 | W-Mom                | B14619                |         574955      |
 | P-Mass               | B14619                |         576540      |
 +----------------------+-----------------------+---------------------+
 | H-Energy             | B14619                |         575106      |
 +----------------------+-----------------------+---------------------+
 | K-TurbKE             | B14619                |         575752      |
 | O-TurbFreq           | B14619                |         532954      |
 +----------------------+-----------------------+---------------------+

 ======================================================================
 |                     False Transient Information                    |
 +--------------------------------------------------------------------+
 |       Equation       |         Type          | Elapsed Pseudo-Time |
 +--------------------------------------------------------------------+
 | U-Mom                | Auto Timescale        |     5.80909E+00     |
 | V-Mom                | Auto Timescale        |     5.80909E+00     |
 | W-Mom                | Auto Timescale        |     5.80909E+00     |
 | P-Mass               | Auto Timescale        |     5.80909E+00     |
 +----------------------+-----------------------+---------------------+
 | H-Energy             | Auto Timescale        |     5.80909E+00     |
 +----------------------+-----------------------+---------------------+
 | K-TurbKE             | Auto Timescale        |     5.80909E+00     |
 | O-TurbFreq           | Auto Timescale        |     5.80909E+00     |
 +----------------------+-----------------------+---------------------+

 +--------------------------------------------------------------------+
 |                     Average Scale Information                      |
 +--------------------------------------------------------------------+

 Domain Name : B14619
     Global Length                                         = 1.5396E-01
     Minimum Extent                                        = 2.2433E-02
     Maximum Extent                                        = 9.5300E-01
     Density                                               = 9.7118E-01
     Dynamic Viscosity                                     = 1.8445E-05
     Velocity                                              = 2.9251E-01
     Advection Time                                        = 5.2635E-01
     Reynolds Number                                       = 2.3712E+03
     Speed of Sound                                        = 3.4697E+02
     Mach Number                                           = 8.4302E-04
     Thermal Conductivity                                  = 2.6100E-02
     Specific Heat Capacity at Constant Pressure           = 1.0044E+03
     Specific Heat Capacity at Constant Volume             = 7.1730E+02
     Specific Heat Ratio                                   = 1.4003E+00
     Prandtl Number                                        = 7.0982E-01
     Temperature Range                                     = 4.5030E+01

 +--------------------------------------------------------------------+
 |                     Variable Range Information                     |
 +--------------------------------------------------------------------+

 Domain Name : B14619
 +--------------------------------------------------------------------+
 |      Variable Name                         |    min    |    max    |
 +--------------------------------------------------------------------+
 | Density                                    |  8.60E-01 |  9.92E-01 |
 | Specific Heat Capacity at Constant Pressure|  1.00E+03 |  1.00E+03 |
 | Dynamic Viscosity                          |  1.81E-05 |  2.02E-05 |
 | Thermal Conductivity                       |  2.61E-02 |  2.61E-02 |
 | Isothermal Compressibility                 |  1.20E-05 |  1.20E-05 |
 | Static Entropy                             |  3.86E+01 |  1.82E+02 |
 | Velocity u                                 | -3.78E-02 |  8.25E-01 |
 | Velocity v                                 | -2.42E-01 |  2.42E-01 |
 | Velocity w                                 | -4.46E-01 |  1.28E+00 |
 | Pressure                                   | -1.78E+04 | -1.78E+04 |
 | Turbulence Kinetic Energy                  |  5.59E-26 |  1.72E-03 |
 | Turbulence Eddy Frequency                  |  5.39E+00 |  5.93E+07 |
 | Eddy Viscosity                             |  9.49E-34 |  9.89E-05 |
 | Temperature                                |  2.93E+02 |  3.38E+02 |
 | Static Enthalpy                            | -5.02E+03 |  4.02E+04 |
 | Wall Scale                                 |  7.48E-12 |  6.36E-05 |
 | Wall Distance                              |  1.11E-09 |  1.12E-02 |
 +--------------------------------------------------------------------+


 +--------------------------------------------------------------------+
 |            Host Memory Information (Mbytes): Solver                |
 +--------------------------------------------------------------------+
 |           Host         | Nproc |   System    |    Peak     |   %   |
 +------------------------+-------+-------------+-------------+-------+
 | LAMDPC7                |   22  |   262064.50 |     5313.51 |  2.03 |
 +------------------------+-------+-------------+-------------+-------+

 +--------------------------------------------------------------------+
 |              CPU Time Requirements of Solver - Total               |
 +--------------------------------------------------------------------+
 
 Subsystem Name                  Discretization       Linear Solution
                                (secs.   %total)     (secs.   %total) 
 ----------------------------------------------------------------------
 Momentum and Mass              6.38E+03  50.7 %     1.07E+03   8.5 %
 Heat Transfer                  1.56E+03  12.4 %     2.48E+02   2.0 %
 TurbKE and TurbFreq            1.53E+03  12.1 %     5.14E+02   4.1 %
                                -------- -------     --------  ------
 Subsystem Summary              9.46E+03  75.2 %     1.84E+03  14.6 %

 File Reading                   1.74E+02    1.4 %
 Search Calculations            5.40E-02    0.0 %
 Variable Updates               8.24E+02    6.5 %
 File Writing                   9.73E+01    0.8 %
 Miscellaneous                  1.94E+02    1.5 %
                                --------
 Total                          1.26E+04

 +--------------------------------------------------------------------+
 |                   Job Information at End of Run                    |
 +--------------------------------------------------------------------+

 Job finished:   Tue Nov 26 13:15:09 2024

 Total wall clock time: 5.698E+02 seconds
             or: (          0:         0:         9:    29.816 )
                 (       Days:     Hours:   Minutes:   Seconds )



 --> Final synchronization point reached by all processes.
End of solution stage.

 +--------------------------------------------------------------------+
 | The results from this run of the ANSYS CFX Solver have been        |
 | written to D:/jena/ML4Science_pending/dp0_CFX_Solution/Fluid Flow  |
 | CFX_002.res                                                        |
 +--------------------------------------------------------------------+


 +--------------------------------------------------------------------+
 | For CFX runs launched from Workbench, the final locations of       |
 | directories and files generated may differ from those shown.       |
 +--------------------------------------------------------------------+


This run of the ANSYS CFX Solver has finished.
